LAMMPS (6 Aug 2014)
variable	nome string propane
variable	rc equal 14.0
variable	t_step equal 10
variable	skin equal 2.0
variable	temp equal 200
variable	seed equal 2387
variable	nequil equal 2000
variable	nprod equal 200000

units		real
atom_style	full
bond_style	harmonic
angle_style	harmonic
dihedral_style	opls
pair_style	lj/cut 14
pair_modify	mix arithmetic tail yes

read_data	propane.lammps_data
  orthogonal box = (0 0 0) to (32 32 32)
  reading atoms ...
  828 atoms
  scanning bonds ...
  scanning angles ...
  reading bonds ...
  552 bonds
  reading angles ...
  276 angles

velocity	all create 200 2387
timestep 	10

neighbor	2 bin
neigh_modify	delay 0 every 1

thermo		20
thermo_style	custom step temp pe ke press

variable	tdamp equal 100*10
fix		1 all rigid/nvt/small molecule temp 200 200 1000
276 rigid bodies with 828 atoms
  1.54029 = max distance from body owner to body atom
dump 		1 all custom 20 propane.lammpstrj id mol type x y z ix iy iz
run		2000
Step Temp PotEng KinEng Press
0    204.63423    -928.1974    336.09665   -1149.3298
Averages over the last 51 of 101 rows, steps 1000 to 2000:
Temp PotEng KinEng Press
199.985 -861.896 328.461 719.912
Loop time of 7.20545 on 4 procs for 2000 steps with 828 atoms

Pair  time (%) = 2.95286 (40.981)
Bond  time (%) = 0.0446842 (0.620144)
Neigh time (%) = 0.913501 (12.6779)
Comm  time (%) = 0.830586 (11.5272)
Outpt time (%) = 0.10503 (1.45765)
Other time (%) = 2.35879 (32.7361)

unfix		1
fix		2 all rigid/nve/small molecule
276 rigid bodies with 828 atoms
  1.54029 = max distance from body owner to body atom
run		200000
Step Temp PotEng KinEng Press
2000    201.83303   -868.33663    331.49589    810.75332
Averages over the last 5001 of 10001 rows, steps 102000 to 202000:
Temp PotEng KinEng Press
197.845 -861.826 324.945 718.775
Loop time of 874.966 on 4 procs for 200000 steps with 828 atoms

Pair  time (%) = 327.808 (37.4652)
Bond  time (%) = 4.78573 (0.546962)
Neigh time (%) = 111.674 (12.7632)
Comm  time (%) = 150.585 (17.2104)
Outpt time (%) = 15.1177 (1.7278)
Other time (%) = 264.996 (30.2864)
